tests/data/dist/micro/linecode_10x10.dss
! Ten conductor linecode (10x10 matrices). Exercises double digit conductor
! indices end to end; the draft BMOPF schema's flat matrix key pattern
! (R_series_<i>_<j>) must accept multi digit indices to represent this case.
Clear
Set DefaultBaseFrequency=60

New Circuit.linecode_10x10 basekv=0.416 pu=1.0 phases=3 bus1=sourcebus MVAsc3=2000 MVAsc1=2100

New Linecode.lc10 nphases=10 basefreq=60 units=km
~ rmatrix = (0.25 | 0.05 0.25 | 0.05 0.05 0.25 | 0.05 0.05 0.05 0.25 | 0.05 0.05 0.05 0.05 0.25 | 0.05 0.05 0.05 0.05 0.05 0.25 | 0.05 0.05 0.05 0.05 0.05 0.05 0.25 | 0.05 0.05 0.05 0.05 0.05 0.05 0.05 0.25 | 0.05 0.05 0.05 0.05 0.05 0.05 0.05 0.05 0.25 | 0.05 0.05 0.05 0.05 0.05 0.05 0.05 0.05 0.05 0.25)
~ xmatrix = (0.75 | 0.30 0.75 | 0.30 0.30 0.75 | 0.30 0.30 0.30 0.75 | 0.30 0.30 0.30 0.30 0.75 | 0.30 0.30 0.30 0.30 0.30 0.75 | 0.30 0.30 0.30 0.30 0.30 0.30 0.75 | 0.30 0.30 0.30 0.30 0.30 0.30 0.30 0.75 | 0.30 0.30 0.30 0.30 0.30 0.30 0.30 0.30 0.75 | 0.30 0.30 0.30 0.30 0.30 0.30 0.30 0.30 0.30 0.75)
~ cmatrix = (10.0 | 0.0 10.0 | 0.0 0.0 10.0 | 0.0 0.0 0.0 10.0 | 0.0 0.0 0.0 0.0 10.0 | 0.0 0.0 0.0 0.0 0.0 10.0 | 0.0 0.0 0.0 0.0 0.0 0.0 10.0 | 0.0 0.0 0.0 0.0 0.0 0.0 0.0 10.0 | 0.0 0.0 0.0 0.0 0.0 0.0 0.0 0.0 10.0 | 0.0 0.0 0.0 0.0 0.0 0.0 0.0 0.0 0.0 10.0)

! Parallel service: three triplets of conductors plus one spare, all between
! the same pair of buses. Source side bundles each triplet onto phases 1 2 3.
New Line.l10 bus1=sourcebus.1.2.3.1.2.3.1.2.3.0 bus2=loadbus.1.2.3.4.5.6.7.8.9.10 phases=10 linecode=lc10 length=0.2 units=km

New Load.la bus1=loadbus.1.10 phases=1 conn=wye kv=0.24 kw=5 pf=0.95 model=1 vminpu=0.8 vmaxpu=1.2
New Load.lb bus1=loadbus.5.10 phases=1 conn=wye kv=0.24 kw=5 pf=0.95 model=1 vminpu=0.8 vmaxpu=1.2
New Load.lc bus1=loadbus.9.10 phases=1 conn=wye kv=0.24 kw=5 pf=0.95 model=1 vminpu=0.8 vmaxpu=1.2

Set VoltageBases=[0.416]
Calcvoltagebases
Solve
